Circuit: * C:\Users\juani\OneDrive\Desktop\GIT\TC2\tarea_semanal_6\LT\Draft1.asc

Warning: Multiple definitions of model "2scr375p" Type: BJT
Warning: Multiple definitions of model "2sb1710" Type: BJT
Direct Newton iteration for .op point succeeded.

Date: Mon Aug 28 17:37:05 2023
Total elapsed time: 0.125 seconds.

tnom = 27
temp = 27
method = modified trap
totiter = 1169
traniter = 1162
tranpoints = 437
accept = 278
rejected = 159
matrix size = 15
fillins = 1
solver = Normal
Avg thread counts: 4.5/8.9/8.9/4.5
Matrix Compiler1: 730 bytes object code size  0.7/0.5/[0.3]
Matrix Compiler2: 1.10 KB object code size  0.5/0.8/[0.3]

