Circuit: * C:\Users\juani\OneDrive\Desktop\GIT\TC2\tp_semanal_6\LT\punto1.asc

.OP point found by inspection.

Date: Thu Nov 23 18:43:05 2023
Total elapsed time: 0.135 seconds.

tnom = 27
temp = 27
method = trap
totiter = 0
traniter = 0
tranpoints = 0
accept = 0
rejected = 0
matrix size = 4
fillins = 2
solver = Normal
Avg thread counts: 12.0/0.0/0.0/5.4
Matrix Compiler1:      17 opcodes
Matrix Compiler2:      26 opcodes
