Circuit: * C:\Users\juani\OneDrive\Desktop\GIT\TC2\tarea_semanal_6\LT\punto2.asc

.OP point found by inspection.

Date: Wed Aug 23 23:12:00 2023
Total elapsed time: 0.030 seconds.

tnom = 27
temp = 27
method = trap
totiter = 0
traniter = 0
tranpoints = 0
accept = 0
rejected = 0
matrix size = 3
fillins = 0
solver = Normal
Avg thread counts: 12.0/0.0/0.0/5.4
Matrix Compiler1:       6 opcodes
Matrix Compiler2:      16 opcodes
