Circuit: * C:\Users\juani\OneDrive\Desktop\GIT\TC2\tp_semanal_9\Draft1.asc

Direct Newton iteration for .op point succeeded.

Date: Mon Oct 23 11:21:38 2023
Total elapsed time: 0.139 seconds.

tnom = 27
temp = 27
method = modified trap
totiter = 827
traniter = 818
tranpoints = 400
accept = 258
rejected = 142
matrix size = 13
fillins = 4
solver = Normal
Avg thread counts: 5.9/9.3/9.3/5.9
Matrix Compiler1: 852 bytes object code size  0.8/0.4/[0.3]
Matrix Compiler2: 1.04 KB object code size  0.5/0.6/[0.3]

