Circuit: * C:\Users\juani\OneDrive\Desktop\GIT\TC2\tp_semanal_9\punto_1.asc

WARNING: Node N002 is floating.

.OP point found by inspection.

Date: Thu Oct 19 20:56:42 2023
Total elapsed time: 0.052 seconds.

tnom = 27
temp = 27
method = trap
totiter = 0
traniter = 0
tranpoints = 0
accept = 0
rejected = 0
matrix size = 5
fillins = 1
solver = Normal
Avg thread counts: 12.0/0.0/0.0/12.0
Matrix Compiler1:      12 opcodes
Matrix Compiler2:      28 opcodes
